1



                                 *********************************************

                                    NUMERICAL ELECTROMAGNETICS CODE (NEC-2D)

                                 *********************************************




                                     - - - - COMMENTS - - - -


                          Example 1 :	Dipole in free space 	                                         
                          See GetStarted.txt                                                         
                                                                                                     
                                                                                                     
                                                                                                     
                                                                                                     
                          forw: 90, 0 ; back: 0, 0                                                   
                                                                                                     




                                 - - - STRUCTURE SPECIFICATION - - -

                                     COORDINATES MUST BE INPUT IN
                                     METERS OR BE SCALED TO METERS
                                     BEFORE STRUCTURE INPUT IS ENDED


  WIRE                                                                               NO. OF    FIRST  LAST     TAG
  NO.        X1         Y1         Z1          X2         Y2         Z2      RADIUS   SEG.     SEG.   SEG.     NO.
     1    0.00000    0.00000    0.00000     0.00000    0.00000    0.37500    0.00500     49        1    49       1
     2   -0.18750    0.00000    0.00000    -0.18750    0.00000    0.37500    0.00500     49       50    98       2
     3    0.00000    0.75000    0.00000     0.00000    0.75000    0.37500    0.00500     49       99   147       3
     4    0.18750    0.00000    0.00000     0.18750    0.00000    0.37500    0.00500     49      148   196       4

   TOTAL SEGMENTS USED=  196     NO. SEG. IN A SYMMETRIC CELL=  196     SYMMETRY FLAG=  0


         - MULTIPLE WIRE JUNCTIONS -
 JUNCTION    SEGMENTS  (- FOR END 1, + FOR END 2)
  NONE




                                 - - - - SEGMENTATION DATA - - - -

                                        COORDINATES IN METERS

                         I+ AND I- INDICATE THE SEGMENTS BEFORE AND AFTER I


  SEG.   COORDINATES OF SEG. CENTER     SEG.     ORIENTATION ANGLES    WIRE    CONNECTION DATA   TAG
  NO.       X         Y         Z       LENGTH     ALPHA     BETA      RADIUS    I-   I    I+    NO.
     1   0.00000   0.00000   0.00383   0.00765   90.00000   0.00000   0.00500     0    1    2      1
     2   0.00000   0.00000   0.01148   0.00765   90.00000   0.00000   0.00500     1    2    3      1
     3   0.00000   0.00000   0.01913   0.00765   90.00000   0.00000   0.00500     2    3    4      1
     4   0.00000   0.00000   0.02679   0.00765   90.00000   0.00000   0.00500     3    4    5      1
     5   0.00000   0.00000   0.03444   0.00765   90.00000   0.00000   0.00500     4    5    6      1
     6   0.00000   0.00000   0.04209   0.00765   90.00000   0.00000   0.00500     5    6    7      1
     7   0.00000   0.00000   0.04974   0.00765   90.00000   0.00000   0.00500     6    7    8      1
     8   0.00000   0.00000   0.05740   0.00765   90.00000   0.00000   0.00500     7    8    9      1
     9   0.00000   0.00000   0.06505   0.00765   90.00000   0.00000   0.00500     8    9   10      1
    10   0.00000   0.00000   0.07270   0.00765   90.00000   0.00000   0.00500     9   10   11      1
    11   0.00000   0.00000   0.08036   0.00765   90.00000   0.00000   0.00500    10   11   12      1
    12   0.00000   0.00000   0.08801   0.00765   90.00000   0.00000   0.00500    11   12   13      1
    13   0.00000   0.00000   0.09566   0.00765   90.00000   0.00000   0.00500    12   13   14      1
    14   0.00000   0.00000   0.10332   0.00765   90.00000   0.00000   0.00500    13   14   15      1
    15   0.00000   0.00000   0.11097   0.00765   90.00000   0.00000   0.00500    14   15   16      1
    16   0.00000   0.00000   0.11862   0.00765   90.00000   0.00000   0.00500    15   16   17      1
    17   0.00000   0.00000   0.12628   0.00765   90.00000   0.00000   0.00500    16   17   18      1
    18   0.00000   0.00000   0.13393   0.00765   90.00000   0.00000   0.00500    17   18   19      1
    19   0.00000   0.00000   0.14158   0.00765   90.00000   0.00000   0.00500    18   19   20      1
    20   0.00000   0.00000   0.14923   0.00765   90.00000   0.00000   0.00500    19   20   21      1
    21   0.00000   0.00000   0.15689   0.00765   90.00000   0.00000   0.00500    20   21   22      1
    22   0.00000   0.00000   0.16454   0.00765   90.00000   0.00000   0.00500    21   22   23      1
    23   0.00000   0.00000   0.17219   0.00765   90.00000   0.00000   0.00500    22   23   24      1
    24   0.00000   0.00000   0.17985   0.00765   90.00000   0.00000   0.00500    23   24   25      1
    25   0.00000   0.00000   0.18750   0.00765   90.00000   0.00000   0.00500    24   25   26      1
    26   0.00000   0.00000   0.19515   0.00765   90.00000   0.00000   0.00500    25   26   27      1
    27   0.00000   0.00000   0.20281   0.00765   90.00000   0.00000   0.00500    26   27   28      1
    28   0.00000   0.00000   0.21046   0.00765   90.00000   0.00000   0.00500    27   28   29      1
    29   0.00000   0.00000   0.21811   0.00765   90.00000   0.00000   0.00500    28   29   30      1
    30   0.00000   0.00000   0.22577   0.00765   90.00000   0.00000   0.00500    29   30   31      1
    31   0.00000   0.00000   0.23342   0.00765   90.00000   0.00000   0.00500    30   31   32      1
    32   0.00000   0.00000   0.24107   0.00765   90.00000   0.00000   0.00500    31   32   33      1
    33   0.00000   0.00000   0.24872   0.00765   90.00000   0.00000   0.00500    32   33   34      1
    34   0.00000   0.00000   0.25638   0.00765   90.00000   0.00000   0.00500    33   34   35      1
    35   0.00000   0.00000   0.26403   0.00765   90.00000   0.00000   0.00500    34   35   36      1
    36   0.00000   0.00000   0.27168   0.00765   90.00000   0.00000   0.00500    35   36   37      1
    37   0.00000   0.00000   0.27934   0.00765   90.00000   0.00000   0.00500    36   37   38      1
    38   0.00000   0.00000   0.28699   0.00765   90.00000   0.00000   0.00500    37   38   39      1
    39   0.00000   0.00000   0.29464   0.00765   90.00000   0.00000   0.00500    38   39   40      1
    40   0.00000   0.00000   0.30230   0.00765   90.00000   0.00000   0.00500    39   40   41      1
    41   0.00000   0.00000   0.30995   0.00765   90.00000   0.00000   0.00500    40   41   42      1
    42   0.00000   0.00000   0.31760   0.00765   90.00000   0.00000   0.00500    41   42   43      1
    43   0.00000   0.00000   0.32526   0.00765   90.00000   0.00000   0.00500    42   43   44      1
    44   0.00000   0.00000   0.33291   0.00765   90.00000   0.00000   0.00500    43   44   45      1
    45   0.00000   0.00000   0.34056   0.00765   90.00000   0.00000   0.00500    44   45   46      1
    46   0.00000   0.00000   0.34821   0.00765   90.00000   0.00000   0.00500    45   46   47      1
    47   0.00000   0.00000   0.35587   0.00765   90.00000   0.00000   0.00500    46   47   48      1
    48   0.00000   0.00000   0.36352   0.00765   90.00000   0.00000   0.00500    47   48   49      1
    49   0.00000   0.00000   0.37117   0.00765   90.00000   0.00000   0.00500    48   49    0      1
    50  -0.18750   0.00000   0.00383   0.00765   90.00000   0.00000   0.00500     0   50   51      2
    51  -0.18750   0.00000   0.01148   0.00765   90.00000   0.00000   0.00500    50   51   52      2
    52  -0.18750   0.00000   0.01913   0.00765   90.00000   0.00000   0.00500    51   52   53      2
    53  -0.18750   0.00000   0.02679   0.00765   90.00000   0.00000   0.00500    52   53   54      2
    54  -0.18750   0.00000   0.03444   0.00765   90.00000   0.00000   0.00500    53   54   55      2
    55  -0.18750   0.00000   0.04209   0.00765   90.00000   0.00000   0.00500    54   55   56      2
    56  -0.18750   0.00000   0.04974   0.00765   90.00000   0.00000   0.00500    55   56   57      2
    57  -0.18750   0.00000   0.05740   0.00765   90.00000   0.00000   0.00500    56   57   58      2
    58  -0.18750   0.00000   0.06505   0.00765   90.00000   0.00000   0.00500    57   58   59      2
    59  -0.18750   0.00000   0.07270   0.00765   90.00000   0.00000   0.00500    58   59   60      2
    60  -0.18750   0.00000   0.08036   0.00765   90.00000   0.00000   0.00500    59   60   61      2
    61  -0.18750   0.00000   0.08801   0.00765   90.00000   0.00000   0.00500    60   61   62      2
    62  -0.18750   0.00000   0.09566   0.00765   90.00000   0.00000   0.00500    61   62   63      2
    63  -0.18750   0.00000   0.10332   0.00765   90.00000   0.00000   0.00500    62   63   64      2
    64  -0.18750   0.00000   0.11097   0.00765   90.00000   0.00000   0.00500    63   64   65      2
    65  -0.18750   0.00000   0.11862   0.00765   90.00000   0.00000   0.00500    64   65   66      2
    66  -0.18750   0.00000   0.12628   0.00765   90.00000   0.00000   0.00500    65   66   67      2
    67  -0.18750   0.00000   0.13393   0.00765   90.00000   0.00000   0.00500    66   67   68      2
    68  -0.18750   0.00000   0.14158   0.00765   90.00000   0.00000   0.00500    67   68   69      2
    69  -0.18750   0.00000   0.14923   0.00765   90.00000   0.00000   0.00500    68   69   70      2
    70  -0.18750   0.00000   0.15689   0.00765   90.00000   0.00000   0.00500    69   70   71      2
    71  -0.18750   0.00000   0.16454   0.00765   90.00000   0.00000   0.00500    70   71   72      2
    72  -0.18750   0.00000   0.17219   0.00765   90.00000   0.00000   0.00500    71   72   73      2
    73  -0.18750   0.00000   0.17985   0.00765   90.00000   0.00000   0.00500    72   73   74      2
    74  -0.18750   0.00000   0.18750   0.00765   90.00000   0.00000   0.00500    73   74   75      2
    75  -0.18750   0.00000   0.19515   0.00765   90.00000   0.00000   0.00500    74   75   76      2
    76  -0.18750   0.00000   0.20281   0.00765   90.00000   0.00000   0.00500    75   76   77      2
    77  -0.18750   0.00000   0.21046   0.00765   90.00000   0.00000   0.00500    76   77   78      2
    78  -0.18750   0.00000   0.21811   0.00765   90.00000   0.00000   0.00500    77   78   79      2
    79  -0.18750   0.00000   0.22577   0.00765   90.00000   0.00000   0.00500    78   79   80      2
    80  -0.18750   0.00000   0.23342   0.00765   90.00000   0.00000   0.00500    79   80   81      2
    81  -0.18750   0.00000   0.24107   0.00765   90.00000   0.00000   0.00500    80   81   82      2
    82  -0.18750   0.00000   0.24872   0.00765   90.00000   0.00000   0.00500    81   82   83      2
    83  -0.18750   0.00000   0.25638   0.00765   90.00000   0.00000   0.00500    82   83   84      2
    84  -0.18750   0.00000   0.26403   0.00765   90.00000   0.00000   0.00500    83   84   85      2
    85  -0.18750   0.00000   0.27168   0.00765   90.00000   0.00000   0.00500    84   85   86      2
    86  -0.18750   0.00000   0.27934   0.00765   90.00000   0.00000   0.00500    85   86   87      2
    87  -0.18750   0.00000   0.28699   0.00765   90.00000   0.00000   0.00500    86   87   88      2
    88  -0.18750   0.00000   0.29464   0.00765   90.00000   0.00000   0.00500    87   88   89      2
    89  -0.18750   0.00000   0.30230   0.00765   90.00000   0.00000   0.00500    88   89   90      2
    90  -0.18750   0.00000   0.30995   0.00765   90.00000   0.00000   0.00500    89   90   91      2
    91  -0.18750   0.00000   0.31760   0.00765   90.00000   0.00000   0.00500    90   91   92      2
    92  -0.18750   0.00000   0.32526   0.00765   90.00000   0.00000   0.00500    91   92   93      2
    93  -0.18750   0.00000   0.33291   0.00765   90.00000   0.00000   0.00500    92   93   94      2
    94  -0.18750   0.00000   0.34056   0.00765   90.00000   0.00000   0.00500    93   94   95      2
    95  -0.18750   0.00000   0.34821   0.00765   90.00000   0.00000   0.00500    94   95   96      2
    96  -0.18750   0.00000   0.35587   0.00765   90.00000   0.00000   0.00500    95   96   97      2
    97  -0.18750   0.00000   0.36352   0.00765   90.00000   0.00000   0.00500    96   97   98      2
    98  -0.18750   0.00000   0.37117   0.00765   90.00000   0.00000   0.00500    97   98    0      2
    99   0.00000   0.75000   0.00383   0.00765   90.00000   0.00000   0.00500     0   99  100      3
   100   0.00000   0.75000   0.01148   0.00765   90.00000   0.00000   0.00500    99  100  101      3
   101   0.00000   0.75000   0.01913   0.00765   90.00000   0.00000   0.00500   100  101  102      3
   102   0.00000   0.75000   0.02679   0.00765   90.00000   0.00000   0.00500   101  102  103      3
   103   0.00000   0.75000   0.03444   0.00765   90.00000   0.00000   0.00500   102  103  104      3
   104   0.00000   0.75000   0.04209   0.00765   90.00000   0.00000   0.00500   103  104  105      3
   105   0.00000   0.75000   0.04974   0.00765   90.00000   0.00000   0.00500   104  105  106      3
   106   0.00000   0.75000   0.05740   0.00765   90.00000   0.00000   0.00500   105  106  107      3
   107   0.00000   0.75000   0.06505   0.00765   90.00000   0.00000   0.00500   106  107  108      3
   108   0.00000   0.75000   0.07270   0.00765   90.00000   0.00000   0.00500   107  108  109      3
   109   0.00000   0.75000   0.08036   0.00765   90.00000   0.00000   0.00500   108  109  110      3
   110   0.00000   0.75000   0.08801   0.00765   90.00000   0.00000   0.00500   109  110  111      3
   111   0.00000   0.75000   0.09566   0.00765   90.00000   0.00000   0.00500   110  111  112      3
   112   0.00000   0.75000   0.10332   0.00765   90.00000   0.00000   0.00500   111  112  113      3
   113   0.00000   0.75000   0.11097   0.00765   90.00000   0.00000   0.00500   112  113  114      3
   114   0.00000   0.75000   0.11862   0.00765   90.00000   0.00000   0.00500   113  114  115      3
   115   0.00000   0.75000   0.12628   0.00765   90.00000   0.00000   0.00500   114  115  116      3
   116   0.00000   0.75000   0.13393   0.00765   90.00000   0.00000   0.00500   115  116  117      3
   117   0.00000   0.75000   0.14158   0.00765   90.00000   0.00000   0.00500   116  117  118      3
   118   0.00000   0.75000   0.14923   0.00765   90.00000   0.00000   0.00500   117  118  119      3
   119   0.00000   0.75000   0.15689   0.00765   90.00000   0.00000   0.00500   118  119  120      3
   120   0.00000   0.75000   0.16454   0.00765   90.00000   0.00000   0.00500   119  120  121      3
   121   0.00000   0.75000   0.17219   0.00765   90.00000   0.00000   0.00500   120  121  122      3
   122   0.00000   0.75000   0.17985   0.00765   90.00000   0.00000   0.00500   121  122  123      3
   123   0.00000   0.75000   0.18750   0.00765   90.00000   0.00000   0.00500   122  123  124      3
   124   0.00000   0.75000   0.19515   0.00765   90.00000   0.00000   0.00500   123  124  125      3
   125   0.00000   0.75000   0.20281   0.00765   90.00000   0.00000   0.00500   124  125  126      3
   126   0.00000   0.75000   0.21046   0.00765   90.00000   0.00000   0.00500   125  126  127      3
   127   0.00000   0.75000   0.21811   0.00765   90.00000   0.00000   0.00500   126  127  128      3
   128   0.00000   0.75000   0.22577   0.00765   90.00000   0.00000   0.00500   127  128  129      3
   129   0.00000   0.75000   0.23342   0.00765   90.00000   0.00000   0.00500   128  129  130      3
   130   0.00000   0.75000   0.24107   0.00765   90.00000   0.00000   0.00500   129  130  131      3
   131   0.00000   0.75000   0.24872   0.00765   90.00000   0.00000   0.00500   130  131  132      3
   132   0.00000   0.75000   0.25638   0.00765   90.00000   0.00000   0.00500   131  132  133      3
   133   0.00000   0.75000   0.26403   0.00765   90.00000   0.00000   0.00500   132  133  134      3
   134   0.00000   0.75000   0.27168   0.00765   90.00000   0.00000   0.00500   133  134  135      3
   135   0.00000   0.75000   0.27934   0.00765   90.00000   0.00000   0.00500   134  135  136      3
   136   0.00000   0.75000   0.28699   0.00765   90.00000   0.00000   0.00500   135  136  137      3
   137   0.00000   0.75000   0.29464   0.00765   90.00000   0.00000   0.00500   136  137  138      3
   138   0.00000   0.75000   0.30230   0.00765   90.00000   0.00000   0.00500   137  138  139      3
   139   0.00000   0.75000   0.30995   0.00765   90.00000   0.00000   0.00500   138  139  140      3
   140   0.00000   0.75000   0.31760   0.00765   90.00000   0.00000   0.00500   139  140  141      3
   141   0.00000   0.75000   0.32526   0.00765   90.00000   0.00000   0.00500   140  141  142      3
   142   0.00000   0.75000   0.33291   0.00765   90.00000   0.00000   0.00500   141  142  143      3
   143   0.00000   0.75000   0.34056   0.00765   90.00000   0.00000   0.00500   142  143  144      3
   144   0.00000   0.75000   0.34821   0.00765   90.00000   0.00000   0.00500   143  144  145      3
   145   0.00000   0.75000   0.35587   0.00765   90.00000   0.00000   0.00500   144  145  146      3
   146   0.00000   0.75000   0.36352   0.00765   90.00000   0.00000   0.00500   145  146  147      3
   147   0.00000   0.75000   0.37117   0.00765   90.00000   0.00000   0.00500   146  147    0      3
   148   0.18750   0.00000   0.00383   0.00765   90.00000   0.00000   0.00500     0  148  149      4
   149   0.18750   0.00000   0.01148   0.00765   90.00000   0.00000   0.00500   148  149  150      4
   150   0.18750   0.00000   0.01913   0.00765   90.00000   0.00000   0.00500   149  150  151      4
   151   0.18750   0.00000   0.02679   0.00765   90.00000   0.00000   0.00500   150  151  152      4
   152   0.18750   0.00000   0.03444   0.00765   90.00000   0.00000   0.00500   151  152  153      4
   153   0.18750   0.00000   0.04209   0.00765   90.00000   0.00000   0.00500   152  153  154      4
   154   0.18750   0.00000   0.04974   0.00765   90.00000   0.00000   0.00500   153  154  155      4
   155   0.18750   0.00000   0.05740   0.00765   90.00000   0.00000   0.00500   154  155  156      4
   156   0.18750   0.00000   0.06505   0.00765   90.00000   0.00000   0.00500   155  156  157      4
   157   0.18750   0.00000   0.07270   0.00765   90.00000   0.00000   0.00500   156  157  158      4
   158   0.18750   0.00000   0.08036   0.00765   90.00000   0.00000   0.00500   157  158  159      4
   159   0.18750   0.00000   0.08801   0.00765   90.00000   0.00000   0.00500   158  159  160      4
   160   0.18750   0.00000   0.09566   0.00765   90.00000   0.00000   0.00500   159  160  161      4
   161   0.18750   0.00000   0.10332   0.00765   90.00000   0.00000   0.00500   160  161  162      4
   162   0.18750   0.00000   0.11097   0.00765   90.00000   0.00000   0.00500   161  162  163      4
   163   0.18750   0.00000   0.11862   0.00765   90.00000   0.00000   0.00500   162  163  164      4
   164   0.18750   0.00000   0.12628   0.00765   90.00000   0.00000   0.00500   163  164  165      4
   165   0.18750   0.00000   0.13393   0.00765   90.00000   0.00000   0.00500   164  165  166      4
   166   0.18750   0.00000   0.14158   0.00765   90.00000   0.00000   0.00500   165  166  167      4
   167   0.18750   0.00000   0.14923   0.00765   90.00000   0.00000   0.00500   166  167  168      4
   168   0.18750   0.00000   0.15689   0.00765   90.00000   0.00000   0.00500   167  168  169      4
   169   0.18750   0.00000   0.16454   0.00765   90.00000   0.00000   0.00500   168  169  170      4
   170   0.18750   0.00000   0.17219   0.00765   90.00000   0.00000   0.00500   169  170  171      4
   171   0.18750   0.00000   0.17985   0.00765   90.00000   0.00000   0.00500   170  171  172      4
   172   0.18750   0.00000   0.18750   0.00765   90.00000   0.00000   0.00500   171  172  173      4
   173   0.18750   0.00000   0.19515   0.00765   90.00000   0.00000   0.00500   172  173  174      4
   174   0.18750   0.00000   0.20281   0.00765   90.00000   0.00000   0.00500   173  174  175      4
   175   0.18750   0.00000   0.21046   0.00765   90.00000   0.00000   0.00500   174  175  176      4
   176   0.18750   0.00000   0.21811   0.00765   90.00000   0.00000   0.00500   175  176  177      4
   177   0.18750   0.00000   0.22577   0.00765   90.00000   0.00000   0.00500   176  177  178      4
   178   0.18750   0.00000   0.23342   0.00765   90.00000   0.00000   0.00500   177  178  179      4
   179   0.18750   0.00000   0.24107   0.00765   90.00000   0.00000   0.00500   178  179  180      4
   180   0.18750   0.00000   0.24872   0.00765   90.00000   0.00000   0.00500   179  180  181      4
   181   0.18750   0.00000   0.25638   0.00765   90.00000   0.00000   0.00500   180  181  182      4
   182   0.18750   0.00000   0.26403   0.00765   90.00000   0.00000   0.00500   181  182  183      4
   183   0.18750   0.00000   0.27168   0.00765   90.00000   0.00000   0.00500   182  183  184      4
   184   0.18750   0.00000   0.27934   0.00765   90.00000   0.00000   0.00500   183  184  185      4
   185   0.18750   0.00000   0.28699   0.00765   90.00000   0.00000   0.00500   184  185  186      4
   186   0.18750   0.00000   0.29464   0.00765   90.00000   0.00000   0.00500   185  186  187      4
   187   0.18750   0.00000   0.30230   0.00765   90.00000   0.00000   0.00500   186  187  188      4
   188   0.18750   0.00000   0.30995   0.00765   90.00000   0.00000   0.00500   187  188  189      4
   189   0.18750   0.00000   0.31760   0.00765   90.00000   0.00000   0.00500   188  189  190      4
   190   0.18750   0.00000   0.32526   0.00765   90.00000   0.00000   0.00500   189  190  191      4
   191   0.18750   0.00000   0.33291   0.00765   90.00000   0.00000   0.00500   190  191  192      4
   192   0.18750   0.00000   0.34056   0.00765   90.00000   0.00000   0.00500   191  192  193      4
   193   0.18750   0.00000   0.34821   0.00765   90.00000   0.00000   0.00500   192  193  194      4
   194   0.18750   0.00000   0.35587   0.00765   90.00000   0.00000   0.00500   193  194  195      4
   195   0.18750   0.00000   0.36352   0.00765   90.00000   0.00000   0.00500   194  195  196      4
   196   0.18750   0.00000   0.37117   0.00765   90.00000   0.00000   0.00500   195  196    0      4






 ***** DATA CARD NO.  1   GN  -1     0     0     0  0.00000E+00  0.00000E+00  0.00000E+00  0.00000E+00  0.00000E+00  0.00000E+00
 ***** DATA CARD NO.  2   EK   0     0     0     0  0.00000E+00  0.00000E+00  0.00000E+00  0.00000E+00  0.00000E+00  0.00000E+00
 ***** DATA CARD NO.  3   EX   0     1    25     0  1.00000E+00  0.00000E+00  0.00000E+00  0.00000E+00  0.00000E+00  0.00000E+00
 ***** DATA CARD NO.  4   FR   0     0     0     0  4.00000E+02  0.00000E+00  0.00000E+00  0.00000E+00  0.00000E+00  0.00000E+00
 ***** DATA CARD NO.  5   RP   0     1    73  1000  9.00000E+01  0.00000E+00  0.00000E+00  5.00000E+00  0.00000E+00  0.00000E+00




                                 - - - - - - FREQUENCY - - - - - -

                                    FREQUENCY= 4.0000E+02 MHZ
                                    WAVELENGTH= 7.4950E-01 METERS




                    APPROXIMATE INTEGRATION EMPLOYED FOR SEGMENTS MORE THAN   1.000 WAVELENGTHS APART

                    THE EXTENDED THIN WIRE KERNEL WILL BE USED



                               - - - STRUCTURE IMPEDANCE LOADING - - -

                                   THIS STRUCTURE IS NOT LOADED



                                  - - - ANTENNA ENVIRONMENT - - -

                                            FREE SPACE



                                - - - MATRIX TIMING - - -

                        FILL=    0.016 SEC.,  FACTOR=    0.016 SEC.



                                          - - - ANTENNA INPUT PARAMETERS - - -

   TAG   SEG.    VOLTAGE (VOLTS)         CURRENT (AMPS)         IMPEDANCE (OHMS)        ADMITTANCE (MHOS)      POWER
   NO.   NO.    REAL        IMAG.       REAL        IMAG.       REAL        IMAG.       REAL        IMAG.     (WATTS)
     1    25 1.00000E+00 0.00000E+00 2.68865E-03-3.05648E-03 1.62251E+02 1.84449E+02 2.68865E-03-3.05648E-03 1.34432E-03



                             - - - CURRENTS AND LOCATION - - -

                                 DISTANCES IN WAVELENGTHS


  SEG.  TAG    COORD. OF SEG. CENTER     SEG.            - - - CURRENT (AMPS) - - -
  NO.   NO.     X        Y        Z      LENGTH     REAL        IMAG.       MAG.        PHASE
     1    1   0.0000   0.0000   0.0051  0.01021   2.6551E-04 -6.6545E-04  7.1646E-04  -68.249
     2    1   0.0000   0.0000   0.0153  0.01021   4.8410E-04 -1.1989E-03  1.2930E-03  -68.012
     3    1   0.0000   0.0000   0.0255  0.01021   6.6881E-04 -1.6368E-03  1.7682E-03  -67.775
     4    1   0.0000   0.0000   0.0357  0.01021   8.4010E-04 -2.0316E-03  2.1984E-03  -67.534
     5    1   0.0000   0.0000   0.0459  0.01021   1.0021E-03 -2.3940E-03  2.5953E-03  -67.286
     6    1   0.0000   0.0000   0.0562  0.01021   1.1565E-03 -2.7285E-03  2.9635E-03  -67.029
     7    1   0.0000   0.0000   0.0664  0.01021   1.3041E-03 -3.0368E-03  3.3050E-03  -66.760
     8    1   0.0000   0.0000   0.0766  0.01021   1.4451E-03 -3.3199E-03  3.6207E-03  -66.478
     9    1   0.0000   0.0000   0.0868  0.01021   1.5795E-03 -3.5777E-03  3.9108E-03  -66.179
    10    1   0.0000   0.0000   0.0970  0.01021   1.7073E-03 -3.8100E-03  4.1750E-03  -65.863
    11    1   0.0000   0.0000   0.1072  0.01021   1.8282E-03 -4.0164E-03  4.4129E-03  -65.525
    12    1   0.0000   0.0000   0.1174  0.01021   1.9422E-03 -4.1963E-03  4.6239E-03  -65.163
    13    1   0.0000   0.0000   0.1276  0.01021   2.0490E-03 -4.3490E-03  4.8075E-03  -64.773
    14    1   0.0000   0.0000   0.1378  0.01021   2.1482E-03 -4.4738E-03  4.9628E-03  -64.350
    15    1   0.0000   0.0000   0.1481  0.01021   2.2398E-03 -4.5699E-03  5.0892E-03  -63.889
    16    1   0.0000   0.0000   0.1583  0.01021   2.3234E-03 -4.6363E-03  5.1859E-03  -63.383
    17    1   0.0000   0.0000   0.1685  0.01021   2.3989E-03 -4.6722E-03  5.2520E-03  -62.822
    18    1   0.0000   0.0000   0.1787  0.01021   2.4660E-03 -4.6761E-03  5.2865E-03  -62.194
    19    1   0.0000   0.0000   0.1889  0.01021   2.5246E-03 -4.6465E-03  5.2880E-03  -61.484
    20    1   0.0000   0.0000   0.1991  0.01021   2.5744E-03 -4.5810E-03  5.2548E-03  -60.665
    21    1   0.0000   0.0000   0.2093  0.01021   2.6154E-03 -4.4760E-03  5.1841E-03  -59.702
    22    1   0.0000   0.0000   0.2195  0.01021   2.6474E-03 -4.3246E-03  5.0706E-03  -58.527
    23    1   0.0000   0.0000   0.2297  0.01021   2.6703E-03 -4.1152E-03  4.9056E-03  -57.021
    24    1   0.0000   0.0000   0.2400  0.01021   2.6840E-03 -3.7689E-03  4.6269E-03  -54.543
    25    1   0.0000   0.0000   0.2502  0.01021   2.6886E-03 -3.0565E-03  4.0707E-03  -48.663
    26    1   0.0000   0.0000   0.2604  0.01021   2.6840E-03 -3.7689E-03  4.6269E-03  -54.543
    27    1   0.0000   0.0000   0.2706  0.01021   2.6703E-03 -4.1152E-03  4.9056E-03  -57.021
    28    1   0.0000   0.0000   0.2808  0.01021   2.6474E-03 -4.3246E-03  5.0706E-03  -58.527
    29    1   0.0000   0.0000   0.2910  0.01021   2.6154E-03 -4.4760E-03  5.1841E-03  -59.702
    30    1   0.0000   0.0000   0.3012  0.01021   2.5744E-03 -4.5810E-03  5.2548E-03  -60.665
    31    1   0.0000   0.0000   0.3114  0.01021   2.5246E-03 -4.6465E-03  5.2880E-03  -61.484
    32    1   0.0000   0.0000   0.3216  0.01021   2.4660E-03 -4.6761E-03  5.2865E-03  -62.194
    33    1   0.0000   0.0000   0.3319  0.01021   2.3989E-03 -4.6722E-03  5.2520E-03  -62.822
    34    1   0.0000   0.0000   0.3421  0.01021   2.3234E-03 -4.6363E-03  5.1859E-03  -63.383
    35    1   0.0000   0.0000   0.3523  0.01021   2.2398E-03 -4.5699E-03  5.0892E-03  -63.889
    36    1   0.0000   0.0000   0.3625  0.01021   2.1482E-03 -4.4738E-03  4.9628E-03  -64.350
    37    1   0.0000   0.0000   0.3727  0.01021   2.0490E-03 -4.3490E-03  4.8075E-03  -64.773
    38    1   0.0000   0.0000   0.3829  0.01021   1.9422E-03 -4.1963E-03  4.6239E-03  -65.163
    39    1   0.0000   0.0000   0.3931  0.01021   1.8282E-03 -4.0164E-03  4.4129E-03  -65.525
    40    1   0.0000   0.0000   0.4033  0.01021   1.7073E-03 -3.8100E-03  4.1750E-03  -65.863
    41    1   0.0000   0.0000   0.4135  0.01021   1.5795E-03 -3.5777E-03  3.9108E-03  -66.179
    42    1   0.0000   0.0000   0.4238  0.01021   1.4451E-03 -3.3199E-03  3.6207E-03  -66.478
    43    1   0.0000   0.0000   0.4340  0.01021   1.3041E-03 -3.0368E-03  3.3050E-03  -66.760
    44    1   0.0000   0.0000   0.4442  0.01021   1.1565E-03 -2.7285E-03  2.9635E-03  -67.029
    45    1   0.0000   0.0000   0.4544  0.01021   1.0021E-03 -2.3940E-03  2.5953E-03  -67.286
    46    1   0.0000   0.0000   0.4646  0.01021   8.4010E-04 -2.0316E-03  2.1984E-03  -67.534
    47    1   0.0000   0.0000   0.4748  0.01021   6.6881E-04 -1.6368E-03  1.7682E-03  -67.775
    48    1   0.0000   0.0000   0.4850  0.01021   4.8410E-04 -1.1989E-03  1.2930E-03  -68.012
    49    1   0.0000   0.0000   0.4952  0.01021   2.6551E-04 -6.6545E-04  7.1646E-04  -68.249
    50    2  -0.2502   0.0000   0.0051  0.01021   1.8094E-04  4.4135E-04  4.7700E-04   67.708
    51    2  -0.2502   0.0000   0.0153  0.01021   3.2971E-04  8.0508E-04  8.6998E-04   67.729
    52    2  -0.2502   0.0000   0.0255  0.01021   4.5529E-04  1.1128E-03  1.2024E-03   67.749
    53    2  -0.2502   0.0000   0.0357  0.01021   5.7162E-04  1.3985E-03  1.5109E-03   67.769
    54    2  -0.2502   0.0000   0.0459  0.01021   6.8155E-04  1.6691E-03  1.8029E-03   67.788
    55    2  -0.2502   0.0000   0.0562  0.01021   7.8625E-04  1.9274E-03  2.0816E-03   67.807
    56    2  -0.2502   0.0000   0.0664  0.01021   8.8622E-04  2.1744E-03  2.3481E-03   67.826
    57    2  -0.2502   0.0000   0.0766  0.01021   9.8165E-04  2.4107E-03  2.6029E-03   67.844
    58    2  -0.2502   0.0000   0.0868  0.01021   1.0726E-03  2.6363E-03  2.8461E-03   67.861
    59    2  -0.2502   0.0000   0.0970  0.01021   1.1590E-03  2.8509E-03  3.0775E-03   67.877
    60    2  -0.2502   0.0000   0.1072  0.01021   1.2407E-03  3.0543E-03  3.2967E-03   67.892
    61    2  -0.2502   0.0000   0.1174  0.01021   1.3177E-03  3.2462E-03  3.5034E-03   67.906
    62    2  -0.2502   0.0000   0.1276  0.01021   1.3898E-03  3.4260E-03  3.6971E-03   67.919
    63    2  -0.2502   0.0000   0.1378  0.01021   1.4568E-03  3.5933E-03  3.8774E-03   67.931
    64    2  -0.2502   0.0000   0.1481  0.01021   1.5186E-03  3.7477E-03  4.0437E-03   67.942
    65    2  -0.2502   0.0000   0.1583  0.01021   1.5750E-03  3.8889E-03  4.1957E-03   67.952
    66    2  -0.2502   0.0000   0.1685  0.01021   1.6258E-03  4.0163E-03  4.3329E-03   67.961
    67    2  -0.2502   0.0000   0.1787  0.01021   1.6711E-03  4.1296E-03  4.4549E-03   67.969
    68    2  -0.2502   0.0000   0.1889  0.01021   1.7105E-03  4.2285E-03  4.5614E-03   67.976
    69    2  -0.2502   0.0000   0.1991  0.01021   1.7441E-03  4.3127E-03  4.6520E-03   67.981
    70    2  -0.2502   0.0000   0.2093  0.01021   1.7717E-03  4.3820E-03  4.7266E-03   67.986
    71    2  -0.2502   0.0000   0.2195  0.01021   1.7932E-03  4.4361E-03  4.7848E-03   67.990
    72    2  -0.2502   0.0000   0.2297  0.01021   1.8087E-03  4.4748E-03  4.8265E-03   67.992
    73    2  -0.2502   0.0000   0.2400  0.01021   1.8179E-03  4.4981E-03  4.8516E-03   67.994
    74    2  -0.2502   0.0000   0.2502  0.01021   1.8210E-03  4.5059E-03  4.8600E-03   67.994
    75    2  -0.2502   0.0000   0.2604  0.01021   1.8179E-03  4.4981E-03  4.8516E-03   67.994
    76    2  -0.2502   0.0000   0.2706  0.01021   1.8087E-03  4.4748E-03  4.8265E-03   67.992
    77    2  -0.2502   0.0000   0.2808  0.01021   1.7932E-03  4.4361E-03  4.7848E-03   67.990
    78    2  -0.2502   0.0000   0.2910  0.01021   1.7717E-03  4.3820E-03  4.7266E-03   67.986
    79    2  -0.2502   0.0000   0.3012  0.01021   1.7441E-03  4.3127E-03  4.6520E-03   67.981
    80    2  -0.2502   0.0000   0.3114  0.01021   1.7105E-03  4.2285E-03  4.5614E-03   67.976
    81    2  -0.2502   0.0000   0.3216  0.01021   1.6711E-03  4.1296E-03  4.4549E-03   67.969
    82    2  -0.2502   0.0000   0.3319  0.01021   1.6258E-03  4.0163E-03  4.3329E-03   67.961
    83    2  -0.2502   0.0000   0.3421  0.01021   1.5750E-03  3.8889E-03  4.1957E-03   67.952
    84    2  -0.2502   0.0000   0.3523  0.01021   1.5186E-03  3.7477E-03  4.0437E-03   67.942
    85    2  -0.2502   0.0000   0.3625  0.01021   1.4568E-03  3.5933E-03  3.8774E-03   67.931
    86    2  -0.2502   0.0000   0.3727  0.01021   1.3898E-03  3.4260E-03  3.6971E-03   67.919
    87    2  -0.2502   0.0000   0.3829  0.01021   1.3177E-03  3.2462E-03  3.5034E-03   67.906
    88    2  -0.2502   0.0000   0.3931  0.01021   1.2407E-03  3.0543E-03  3.2967E-03   67.892
    89    2  -0.2502   0.0000   0.4033  0.01021   1.1590E-03  2.8509E-03  3.0775E-03   67.877
    90    2  -0.2502   0.0000   0.4135  0.01021   1.0726E-03  2.6363E-03  2.8461E-03   67.861
    91    2  -0.2502   0.0000   0.4238  0.01021   9.8165E-04  2.4107E-03  2.6029E-03   67.844
    92    2  -0.2502   0.0000   0.4340  0.01021   8.8622E-04  2.1744E-03  2.3481E-03   67.826
    93    2  -0.2502   0.0000   0.4442  0.01021   7.8625E-04  1.9274E-03  2.0816E-03   67.807
    94    2  -0.2502   0.0000   0.4544  0.01021   6.8155E-04  1.6691E-03  1.8029E-03   67.788
    95    2  -0.2502   0.0000   0.4646  0.01021   5.7162E-04  1.3985E-03  1.5109E-03   67.769
    96    2  -0.2502   0.0000   0.4748  0.01021   4.5529E-04  1.1128E-03  1.2024E-03   67.749
    97    2  -0.2502   0.0000   0.4850  0.01021   3.2971E-04  8.0508E-04  8.6998E-04   67.729
    98    2  -0.2502   0.0000   0.4952  0.01021   1.8094E-04  4.4135E-04  4.7700E-04   67.708
    99    3   0.0000   1.0007   0.0051  0.01021  -7.8560E-05 -1.4747E-04  1.6709E-04 -118.046
   100    3   0.0000   1.0007   0.0153  0.01021  -1.4369E-04 -2.6855E-04  3.0458E-04 -118.150
   101    3   0.0000   1.0007   0.0255  0.01021  -1.9911E-04 -3.7063E-04  4.2073E-04 -118.245
   102    3   0.0000   1.0007   0.0357  0.01021  -2.5079E-04 -4.6514E-04  5.2844E-04 -118.332
   103    3   0.0000   1.0007   0.0459  0.01021  -2.9991E-04 -5.5441E-04  6.3033E-04 -118.412
   104    3   0.0000   1.0007   0.0562  0.01021  -3.4696E-04 -6.3941E-04  7.2748E-04 -118.485
   105    3   0.0000   1.0007   0.0664  0.01021  -3.9210E-04 -7.2055E-04  8.2033E-04 -118.554
   106    3   0.0000   1.0007   0.0766  0.01021  -4.3540E-04 -7.9802E-04  9.0907E-04 -118.617
   107    3   0.0000   1.0007   0.0868  0.01021  -4.7684E-04 -8.7184E-04  9.9372E-04 -118.676
   108    3   0.0000   1.0007   0.0970  0.01021  -5.1637E-04 -9.4199E-04  1.0742E-03 -118.730
   109    3   0.0000   1.0007   0.1072  0.01021  -5.5391E-04 -1.0084E-03  1.1505E-03 -118.780
   110    3   0.0000   1.0007   0.1174  0.01021  -5.8938E-04 -1.0709E-03  1.2224E-03 -118.826
   111    3   0.0000   1.0007   0.1276  0.01021  -6.2268E-04 -1.1295E-03  1.2897E-03 -118.868
   112    3   0.0000   1.0007   0.1378  0.01021  -6.5373E-04 -1.1839E-03  1.3524E-03 -118.906
   113    3   0.0000   1.0007   0.1481  0.01021  -6.8243E-04 -1.2341E-03  1.4102E-03 -118.941
   114    3   0.0000   1.0007   0.1583  0.01021  -7.0869E-04 -1.2800E-03  1.4631E-03 -118.972
   115    3   0.0000   1.0007   0.1685  0.01021  -7.3243E-04 -1.3214E-03  1.5108E-03 -118.999
   116    3   0.0000   1.0007   0.1787  0.01021  -7.5357E-04 -1.3582E-03  1.5532E-03 -119.024
   117    3   0.0000   1.0007   0.1889  0.01021  -7.7204E-04 -1.3903E-03  1.5902E-03 -119.044
   118    3   0.0000   1.0007   0.1991  0.01021  -7.8777E-04 -1.4176E-03  1.6218E-03 -119.062
   119    3   0.0000   1.0007   0.2093  0.01021  -8.0073E-04 -1.4400E-03  1.6477E-03 -119.076
   120    3   0.0000   1.0007   0.2195  0.01021  -8.1085E-04 -1.4576E-03  1.6679E-03 -119.087
   121    3   0.0000   1.0007   0.2297  0.01021  -8.1810E-04 -1.4701E-03  1.6824E-03 -119.095
   122    3   0.0000   1.0007   0.2400  0.01021  -8.2246E-04 -1.4777E-03  1.6912E-03 -119.100
   123    3   0.0000   1.0007   0.2502  0.01021  -8.2392E-04 -1.4802E-03  1.6941E-03 -119.101
   124    3   0.0000   1.0007   0.2604  0.01021  -8.2246E-04 -1.4777E-03  1.6912E-03 -119.100
   125    3   0.0000   1.0007   0.2706  0.01021  -8.1810E-04 -1.4701E-03  1.6824E-03 -119.095
   126    3   0.0000   1.0007   0.2808  0.01021  -8.1085E-04 -1.4576E-03  1.6679E-03 -119.087
   127    3   0.0000   1.0007   0.2910  0.01021  -8.0073E-04 -1.4400E-03  1.6477E-03 -119.076
   128    3   0.0000   1.0007   0.3012  0.01021  -7.8777E-04 -1.4176E-03  1.6218E-03 -119.062
   129    3   0.0000   1.0007   0.3114  0.01021  -7.7204E-04 -1.3903E-03  1.5902E-03 -119.044
   130    3   0.0000   1.0007   0.3216  0.01021  -7.5357E-04 -1.3582E-03  1.5532E-03 -119.024
   131    3   0.0000   1.0007   0.3319  0.01021  -7.3243E-04 -1.3214E-03  1.5108E-03 -118.999
   132    3   0.0000   1.0007   0.3421  0.01021  -7.0869E-04 -1.2800E-03  1.4631E-03 -118.972
   133    3   0.0000   1.0007   0.3523  0.01021  -6.8243E-04 -1.2341E-03  1.4102E-03 -118.941
   134    3   0.0000   1.0007   0.3625  0.01021  -6.5373E-04 -1.1839E-03  1.3524E-03 -118.906
   135    3   0.0000   1.0007   0.3727  0.01021  -6.2268E-04 -1.1295E-03  1.2897E-03 -118.868
   136    3   0.0000   1.0007   0.3829  0.01021  -5.8938E-04 -1.0709E-03  1.2224E-03 -118.826
   137    3   0.0000   1.0007   0.3931  0.01021  -5.5391E-04 -1.0084E-03  1.1505E-03 -118.780
   138    3   0.0000   1.0007   0.4033  0.01021  -5.1637E-04 -9.4199E-04  1.0742E-03 -118.730
   139    3   0.0000   1.0007   0.4135  0.01021  -4.7684E-04 -8.7184E-04  9.9372E-04 -118.676
   140    3   0.0000   1.0007   0.4238  0.01021  -4.3540E-04 -7.9802E-04  9.0907E-04 -118.617
   141    3   0.0000   1.0007   0.4340  0.01021  -3.9210E-04 -7.2055E-04  8.2033E-04 -118.554
   142    3   0.0000   1.0007   0.4442  0.01021  -3.4696E-04 -6.3941E-04  7.2748E-04 -118.485
   143    3   0.0000   1.0007   0.4544  0.01021  -2.9991E-04 -5.5441E-04  6.3033E-04 -118.412
   144    3   0.0000   1.0007   0.4646  0.01021  -2.5079E-04 -4.6514E-04  5.2844E-04 -118.332
   145    3   0.0000   1.0007   0.4748  0.01021  -1.9911E-04 -3.7063E-04  4.2073E-04 -118.245
   146    3   0.0000   1.0007   0.4850  0.01021  -1.4369E-04 -2.6855E-04  3.0458E-04 -118.150
   147    3   0.0000   1.0007   0.4952  0.01021  -7.8560E-05 -1.4747E-04  1.6709E-04 -118.046
   148    4   0.2502   0.0000   0.0051  0.01021   1.8094E-04  4.4135E-04  4.7700E-04   67.708
   149    4   0.2502   0.0000   0.0153  0.01021   3.2971E-04  8.0508E-04  8.6998E-04   67.729
   150    4   0.2502   0.0000   0.0255  0.01021   4.5529E-04  1.1128E-03  1.2024E-03   67.749
   151    4   0.2502   0.0000   0.0357  0.01021   5.7162E-04  1.3985E-03  1.5109E-03   67.769
   152    4   0.2502   0.0000   0.0459  0.01021   6.8155E-04  1.6691E-03  1.8029E-03   67.788
   153    4   0.2502   0.0000   0.0562  0.01021   7.8625E-04  1.9274E-03  2.0816E-03   67.807
   154    4   0.2502   0.0000   0.0664  0.01021   8.8622E-04  2.1744E-03  2.3481E-03   67.826
   155    4   0.2502   0.0000   0.0766  0.01021   9.8165E-04  2.4107E-03  2.6029E-03   67.844
   156    4   0.2502   0.0000   0.0868  0.01021   1.0726E-03  2.6363E-03  2.8461E-03   67.861
   157    4   0.2502   0.0000   0.0970  0.01021   1.1590E-03  2.8509E-03  3.0775E-03   67.877
   158    4   0.2502   0.0000   0.1072  0.01021   1.2407E-03  3.0543E-03  3.2967E-03   67.892
   159    4   0.2502   0.0000   0.1174  0.01021   1.3177E-03  3.2462E-03  3.5034E-03   67.906
   160    4   0.2502   0.0000   0.1276  0.01021   1.3898E-03  3.4260E-03  3.6971E-03   67.919
   161    4   0.2502   0.0000   0.1378  0.01021   1.4568E-03  3.5933E-03  3.8774E-03   67.931
   162    4   0.2502   0.0000   0.1481  0.01021   1.5186E-03  3.7477E-03  4.0437E-03   67.942
   163    4   0.2502   0.0000   0.1583  0.01021   1.5750E-03  3.8889E-03  4.1957E-03   67.952
   164    4   0.2502   0.0000   0.1685  0.01021   1.6258E-03  4.0163E-03  4.3329E-03   67.961
   165    4   0.2502   0.0000   0.1787  0.01021   1.6711E-03  4.1296E-03  4.4549E-03   67.969
   166    4   0.2502   0.0000   0.1889  0.01021   1.7105E-03  4.2285E-03  4.5614E-03   67.976
   167    4   0.2502   0.0000   0.1991  0.01021   1.7441E-03  4.3127E-03  4.6520E-03   67.981
   168    4   0.2502   0.0000   0.2093  0.01021   1.7717E-03  4.3820E-03  4.7266E-03   67.986
   169    4   0.2502   0.0000   0.2195  0.01021   1.7932E-03  4.4361E-03  4.7848E-03   67.990
   170    4   0.2502   0.0000   0.2297  0.01021   1.8087E-03  4.4748E-03  4.8265E-03   67.992
   171    4   0.2502   0.0000   0.2400  0.01021   1.8179E-03  4.4981E-03  4.8516E-03   67.994
   172    4   0.2502   0.0000   0.2502  0.01021   1.8210E-03  4.5059E-03  4.8600E-03   67.994
   173    4   0.2502   0.0000   0.2604  0.01021   1.8179E-03  4.4981E-03  4.8516E-03   67.994
   174    4   0.2502   0.0000   0.2706  0.01021   1.8087E-03  4.4748E-03  4.8265E-03   67.992
   175    4   0.2502   0.0000   0.2808  0.01021   1.7932E-03  4.4361E-03  4.7848E-03   67.990
   176    4   0.2502   0.0000   0.2910  0.01021   1.7717E-03  4.3820E-03  4.7266E-03   67.986
   177    4   0.2502   0.0000   0.3012  0.01021   1.7441E-03  4.3127E-03  4.6520E-03   67.981
   178    4   0.2502   0.0000   0.3114  0.01021   1.7105E-03  4.2285E-03  4.5614E-03   67.976
   179    4   0.2502   0.0000   0.3216  0.01021   1.6711E-03  4.1296E-03  4.4549E-03   67.969
   180    4   0.2502   0.0000   0.3319  0.01021   1.6258E-03  4.0163E-03  4.3329E-03   67.961
   181    4   0.2502   0.0000   0.3421  0.01021   1.5750E-03  3.8889E-03  4.1957E-03   67.952
   182    4   0.2502   0.0000   0.3523  0.01021   1.5186E-03  3.7477E-03  4.0437E-03   67.942
   183    4   0.2502   0.0000   0.3625  0.01021   1.4568E-03  3.5933E-03  3.8774E-03   67.931
   184    4   0.2502   0.0000   0.3727  0.01021   1.3898E-03  3.4260E-03  3.6971E-03   67.919
   185    4   0.2502   0.0000   0.3829  0.01021   1.3177E-03  3.2462E-03  3.5034E-03   67.906
   186    4   0.2502   0.0000   0.3931  0.01021   1.2407E-03  3.0543E-03  3.2967E-03   67.892
   187    4   0.2502   0.0000   0.4033  0.01021   1.1590E-03  2.8509E-03  3.0775E-03   67.877
   188    4   0.2502   0.0000   0.4135  0.01021   1.0726E-03  2.6363E-03  2.8461E-03   67.861
   189    4   0.2502   0.0000   0.4238  0.01021   9.8165E-04  2.4107E-03  2.6029E-03   67.844
   190    4   0.2502   0.0000   0.4340  0.01021   8.8622E-04  2.1744E-03  2.3481E-03   67.826
   191    4   0.2502   0.0000   0.4442  0.01021   7.8625E-04  1.9274E-03  2.0816E-03   67.807
   192    4   0.2502   0.0000   0.4544  0.01021   6.8155E-04  1.6691E-03  1.8029E-03   67.788
   193    4   0.2502   0.0000   0.4646  0.01021   5.7162E-04  1.3985E-03  1.5109E-03   67.769
   194    4   0.2502   0.0000   0.4748  0.01021   4.5529E-04  1.1128E-03  1.2024E-03   67.749
   195    4   0.2502   0.0000   0.4850  0.01021   3.2971E-04  8.0508E-04  8.6998E-04   67.729
   196    4   0.2502   0.0000   0.4952  0.01021   1.8094E-04  4.4135E-04  4.7700E-04   67.708



                                        - - - POWER BUDGET - - -

                                           INPUT POWER   = 1.3443E-03 WATTS
                                           RADIATED POWER= 1.3443E-03 WATTS
                                           STRUCTURE LOSS= 0.0000E+00 WATTS
                                           NETWORK LOSS  = 0.0000E+00 WATTS
                                           EFFICIENCY    = 100.00 PERCENT



                                                - - - RADIATION PATTERNS - - -

  - - ANGLES - -           - POWER GAINS -       - - - POLARIZATION - - -    - - - E(THETA) - - -    - - - E(PHI) - - -
  THETA     PHI        VERT.   HOR.    TOTAL      AXIAL     TILT   SENSE     MAGNITUDE    PHASE      MAGNITUDE    PHASE 
 DEGREES  DEGREES       DB      DB      DB        RATIO     DEG.              VOLTS/M    DEGREES      VOLTS/M    DEGREES
   90.00     0.00       3.97 -999.99    3.97    0.00000     0.00  LINEAR    4.48331E-01    15.51    0.00000E+00     0.00
   90.00     5.00       4.50 -999.99    4.50    0.00000     0.00  LINEAR    4.76694E-01    22.01    0.00000E+00     0.00
   90.00    10.00       4.51 -999.99    4.51    0.00000     0.00  LINEAR    4.77260E-01    29.96    0.00000E+00     0.00
   90.00    15.00       4.05 -999.99    4.05    0.00000     0.00  LINEAR    4.52393E-01    38.73    0.00000E+00     0.00
   90.00    20.00       3.16 -999.99    3.16    0.00000     0.00  LINEAR    4.08498E-01    47.89    0.00000E+00     0.00
   90.00    25.00       1.92 -999.99    1.92    0.00000     0.00  LINEAR    3.54328E-01    57.15    0.00000E+00     0.00
   90.00    30.00       0.46 -999.99    0.46    0.00000     0.00  LINEAR    2.99185E-01    66.21    0.00000E+00     0.00
   90.00    35.00      -1.06 -999.99   -1.06    0.00000     0.00  LINEAR    2.51300E-01    74.75    0.00000E+00     0.00
   90.00    40.00      -2.35 -999.99   -2.35    0.00000     0.00  LINEAR    2.16687E-01    82.38    0.00000E+00     0.00
   90.00    45.00      -3.10 -999.99   -3.10    0.00000     0.00  LINEAR    1.98592E-01    88.76    0.00000E+00     0.00
   90.00    50.00      -3.15 -999.99   -3.15    0.00000     0.00  LINEAR    1.97514E-01    93.85    0.00000E+00     0.00
   90.00    55.00      -2.55 -999.99   -2.55    0.00000     0.00  LINEAR    2.11576E-01    97.99    0.00000E+00     0.00
   90.00    60.00      -1.56 -999.99   -1.56    0.00000     0.00  LINEAR    2.37139E-01   101.55    0.00000E+00     0.00
   90.00    65.00      -0.45 -999.99   -0.45    0.00000     0.00  LINEAR    2.69567E-01   104.68    0.00000E+00     0.00
   90.00    70.00       0.59 -999.99    0.59    0.00000     0.00  LINEAR    3.03991E-01   107.36    0.00000E+00     0.00
   90.00    75.00       1.46 -999.99    1.46    0.00000     0.00  LINEAR    3.35896E-01   109.52    0.00000E+00     0.00
   90.00    80.00       2.10 -999.99    2.10    0.00000     0.00  LINEAR    3.61507E-01   111.10    0.00000E+00     0.00
   90.00    85.00       2.49 -999.99    2.49    0.00000     0.00  LINEAR    3.78019E-01   112.06    0.00000E+00     0.00
   90.00    90.00       2.62 -999.99    2.62    0.00000     0.00  LINEAR    3.83715E-01   112.38    0.00000E+00     0.00
   90.00    95.00       2.49 -999.99    2.49    0.00000     0.00  LINEAR    3.78019E-01   112.06    0.00000E+00     0.00
   90.00   100.00       2.10 -999.99    2.10    0.00000     0.00  LINEAR    3.61507E-01   111.10    0.00000E+00     0.00
   90.00   105.00       1.46 -999.99    1.46    0.00000     0.00  LINEAR    3.35896E-01   109.52    0.00000E+00     0.00
   90.00   110.00       0.59 -999.99    0.59    0.00000     0.00  LINEAR    3.03991E-01   107.36    0.00000E+00     0.00
   90.00   115.00      -0.45 -999.99   -0.45    0.00000     0.00  LINEAR    2.69567E-01   104.68    0.00000E+00     0.00
   90.00   120.00      -1.56 -999.99   -1.56    0.00000     0.00  LINEAR    2.37139E-01   101.55    0.00000E+00     0.00
   90.00   125.00      -2.55 -999.99   -2.55    0.00000     0.00  LINEAR    2.11576E-01    97.99    0.00000E+00     0.00
   90.00   130.00      -3.15 -999.99   -3.15    0.00000     0.00  LINEAR    1.97514E-01    93.85    0.00000E+00     0.00
   90.00   135.00      -3.10 -999.99   -3.10    0.00000     0.00  LINEAR    1.98592E-01    88.76    0.00000E+00     0.00
   90.00   140.00      -2.35 -999.99   -2.35    0.00000     0.00  LINEAR    2.16687E-01    82.38    0.00000E+00     0.00
   90.00   145.00      -1.06 -999.99   -1.06    0.00000     0.00  LINEAR    2.51300E-01    74.75    0.00000E+00     0.00
   90.00   150.00       0.46 -999.99    0.46    0.00000     0.00  LINEAR    2.99185E-01    66.21    0.00000E+00     0.00
   90.00   155.00       1.92 -999.99    1.92    0.00000     0.00  LINEAR    3.54328E-01    57.15    0.00000E+00     0.00
   90.00   160.00       3.16 -999.99    3.16    0.00000     0.00  LINEAR    4.08498E-01    47.89    0.00000E+00     0.00
   90.00   165.00       4.05 -999.99    4.05    0.00000     0.00  LINEAR    4.52393E-01    38.73    0.00000E+00     0.00
   90.00   170.00       4.51 -999.99    4.51    0.00000     0.00  LINEAR    4.77260E-01    29.96    0.00000E+00     0.00
   90.00   175.00       4.50 -999.99    4.50    0.00000     0.00  LINEAR    4.76694E-01    22.01    0.00000E+00     0.00
   90.00   180.00       3.97 -999.99    3.97    0.00000     0.00  LINEAR    4.48331E-01    15.51    0.00000E+00     0.00
   90.00   185.00       2.87 -999.99    2.87    0.00000     0.00  LINEAR    3.95291E-01    11.59    0.00000E+00     0.00
   90.00   190.00       1.25 -999.99    1.25    0.00000     0.00  LINEAR    3.27676E-01    12.22    0.00000E+00     0.00
   90.00   195.00      -0.60 -999.99   -0.60    0.00000     0.00  LINEAR    2.64866E-01    20.53    0.00000E+00     0.00
   90.00   200.00      -1.64 -999.99   -1.64    0.00000     0.00  LINEAR    2.35076E-01    37.70    0.00000E+00     0.00
   90.00   205.00      -0.99 -999.99   -0.99    0.00000     0.00  LINEAR    2.53388E-01    55.56    0.00000E+00     0.00
   90.00   210.00       0.47 -999.99    0.47    0.00000     0.00  LINEAR    2.99639E-01    66.20    0.00000E+00     0.00
   90.00   215.00       1.74 -999.99    1.74    0.00000     0.00  LINEAR    3.46776E-01    70.95    0.00000E+00     0.00
   90.00   220.00       2.54 -999.99    2.54    0.00000     0.00  LINEAR    3.80469E-01    73.04    0.00000E+00     0.00
   90.00   225.00       2.90 -999.99    2.90    0.00000     0.00  LINEAR    3.96568E-01    74.55    0.00000E+00     0.00
   90.00   230.00       2.91 -999.99    2.91    0.00000     0.00  LINEAR    3.97074E-01    76.72    0.00000E+00     0.00
   90.00   235.00       2.70 -999.99    2.70    0.00000     0.00  LINEAR    3.87580E-01    80.24    0.00000E+00     0.00
   90.00   240.00       2.42 -999.99    2.42    0.00000     0.00  LINEAR    3.75144E-01    85.32    0.00000E+00     0.00
   90.00   245.00       2.21 -999.99    2.21    0.00000     0.00  LINEAR    3.66043E-01    91.61    0.00000E+00     0.00
   90.00   250.00       2.15 -999.99    2.15    0.00000     0.00  LINEAR    3.63657E-01    98.25    0.00000E+00     0.00
   90.00   255.00       2.24 -999.99    2.24    0.00000     0.00  LINEAR    3.67566E-01   104.22    0.00000E+00     0.00
   90.00   260.00       2.41 -999.99    2.41    0.00000     0.00  LINEAR    3.74568E-01   108.77    0.00000E+00     0.00
   90.00   265.00       2.55 -999.99    2.55    0.00000     0.00  LINEAR    3.80737E-01   111.56    0.00000E+00     0.00
   90.00   270.00       2.60 -999.99    2.60    0.00000     0.00  LINEAR    3.83145E-01   112.49    0.00000E+00     0.00
   90.00   275.00       2.55 -999.99    2.55    0.00000     0.00  LINEAR    3.80737E-01   111.56    0.00000E+00     0.00
   90.00   280.00       2.41 -999.99    2.41    0.00000     0.00  LINEAR    3.74568E-01   108.77    0.00000E+00     0.00
   90.00   285.00       2.24 -999.99    2.24    0.00000     0.00  LINEAR    3.67566E-01   104.22    0.00000E+00     0.00
   90.00   290.00       2.15 -999.99    2.15    0.00000     0.00  LINEAR    3.63657E-01    98.25    0.00000E+00     0.00
   90.00   295.00       2.21 -999.99    2.21    0.00000     0.00  LINEAR    3.66043E-01    91.61    0.00000E+00     0.00
   90.00   300.00       2.42 -999.99    2.42    0.00000     0.00  LINEAR    3.75144E-01    85.32    0.00000E+00     0.00
   90.00   305.00       2.70 -999.99    2.70    0.00000     0.00  LINEAR    3.87580E-01    80.24    0.00000E+00     0.00
   90.00   310.00       2.91 -999.99    2.91    0.00000     0.00  LINEAR    3.97074E-01    76.72    0.00000E+00     0.00
   90.00   315.00       2.90 -999.99    2.90    0.00000     0.00  LINEAR    3.96568E-01    74.55    0.00000E+00     0.00
   90.00   320.00       2.54 -999.99    2.54    0.00000     0.00  LINEAR    3.80469E-01    73.04    0.00000E+00     0.00
   90.00   325.00       1.74 -999.99    1.74    0.00000     0.00  LINEAR    3.46776E-01    70.95    0.00000E+00     0.00
   90.00   330.00       0.47 -999.99    0.47    0.00000     0.00  LINEAR    2.99639E-01    66.20    0.00000E+00     0.00
   90.00   335.00      -0.99 -999.99   -0.99    0.00000     0.00  LINEAR    2.53388E-01    55.56    0.00000E+00     0.00
   90.00   340.00      -1.64 -999.99   -1.64    0.00000     0.00  LINEAR    2.35076E-01    37.70    0.00000E+00     0.00
   90.00   345.00      -0.60 -999.99   -0.60    0.00000     0.00  LINEAR    2.64866E-01    20.53    0.00000E+00     0.00
   90.00   350.00       1.25 -999.99    1.25    0.00000     0.00  LINEAR    3.27676E-01    12.22    0.00000E+00     0.00
   90.00   355.00       2.87 -999.99    2.87    0.00000     0.00  LINEAR    3.95291E-01    11.59    0.00000E+00     0.00
   90.00   360.00       3.97 -999.99    3.97    0.00000     0.00  LINEAR    4.48331E-01    15.51    0.00000E+00     0.00






 ***** DATA CARD NO.  6   EN   0     1    73  1000  9.00000E+01  0.00000E+00  0.00000E+00  5.00000E+00  0.00000E+00  0.00000E+00

 RUN TIME =     0.031
